
RUNSPEC  ===============================================================

TITLE
SIMPLE 2PH MODEL WITH SINGLE FAULT

DIMENS
    20  20  10 / 

METRIC

OIL

WATER

TABDIMS
    2*    24 2*    20    20 1*     1 7* /
EQLDIMS
    2* 100 2* /
REGDIMS
    6* /
WELLDIMS
       12   100     4    12     0     0     0     0     0     0     0     0 /
NSTACK
  25 /
START
9 APR 2015 /

UNIFOUT

GRID    ===============================================================

INCLUDE
'./SIMPLE.GRDECL'
/

PORO
4000*0.3
/

PERMX
2000*80.0
800*150.0
1200*50.0
/

PERMY
2000*80.0
800*150.0
1200*50.0
/

PERMZ
2000*15.0
800*25.0
1200*15.0
/

NOECHO

INIT
/

PROPS     ===============================================================

DENSITY
    900 1000    1 /
PVCDO   -- pref  Bo    Co       muo    vo
           400   1.05  1.0E-05    5      0
    /

PVTW
         400    1    1.0E-06    1      0 /

ROCK
    400  0 /

SWOF
    0.1000,  0.0000e+00,  8.0000e-01  0
    0.2000,  0,           8.0000e-01  0
    0.2500,  2.7310e-04,  5.8082e-01  0
	0.3000,  2.1848e-03,  4.1010e-01  0
   	0.3500,  7.3737e-03,  2.8010e-01  0
	0.4000,  1.7478e-02,  1.8378e-01  0
	0.4500,  3.4138e-02,  1.1473e-01  0
	0.5000,  5.8990e-02,  6.7253e-02  0
	0.5500,  9.3673e-02,  3.6301e-02  0
	0.6000,  1.3983e-01,  1.7506e-02  0
	0.6500,  1.9909e-01,  7.1706e-03  0
	0.7000,  2.7310e-01,  2.2688e-03  0
	0.7500,  3.6350e-01,  4.4820e-04  0
	0.8000,  4.7192e-01,  2.8000e-05  0
	0.8500,  6.0000e-01,  0.0000e+00  0
	0.9000,  7.4939e-01,  0.0000e+00  0	       
/


REGIONS   ===============================================================

SOLUTION  ===============================================================
EQUIL
       0  400    500   0 /

RPTSOL
 RESTART=2 /
/

SUMMARY   ===============================================================
FOPR
FWPR
FWIR
WOPR
'P1'
'P2'
/
WWPR
'P1'
'P2'
/
WWIR
'I1' 
'I2'
/   
FOPT
FWPT
FWIT
WLPR
'P1'
'P2'
/


SCHEDULE   ===============================================================


RPTSCHED
    FIP WELSPECS WELLS /

RPTRST
   BASIC=2 FLORES/

WELSPECS
    'I1'   '1'   2    2  1* 'WATER' /
	'I2'   '1'   2   18  1* 'WATER' /
  	'P1'   '1'  18    2  1* 'OIL' /
   	'P2'   '1'  18   18  1* 'OIL' /
/

COMPDAT
   	'I1'   2*    1    10  'OPEN'  2*     0.2 	1*    0 / 
	'I2'   2*    1    10  'OPEN'  2*     0.2 	1*    0 /
   	'P1'    2*    1    10  'OPEN'  2*     0.2 	1*    0 / 
   	'P2'    2*    1    10  'OPEN'  2*     0.2 	1*    0 / 
/


WCONPROD
    'P1' 'OPEN' 'BHP' 5*  350/
    'P2' 'OPEN' 'BHP' 5*  350/
/

WCONINJE
    'I1'  'WATER'  'OPEN'  'RATE'  20  1* 550/
    'I2'  'WATER'  'OPEN'  'RATE'  20  1* 550/
/

TUNING
0.1 30 /
/
12 1 250 1* 25 /

-- approx 2 year
TSTEP
 24*15/
 
TSTEP
 12*30/
 
END
