-- ECLIPSE test data deck
-- **********************
--
-- Includes many options, viz:
--      End-point scaling versus depth
--      API tracking of the different PVT oils
--      Tracer tracking of initial gas-cap gas and
--                         injected water
--      Group control of wells
--      Reperforation of wells by completion interval
--      Use of the drilling queue
--
-- Variations also include:
--      Use of LGR around a single well which is compared with
--           a standard ECLIPSE run with 4 additional rows and columns
--      Use of the FLUX options
--
-- Model updated in May 2010 (new PVT and VFP tables)
--
--
RUNSPEC
TITLE
ECLIPSE TEST MODEL

DIMENS
   20   15    8  /

UNIFIN

UNIFOUT

OIL

WATER

GAS

DISGAS

API

FIELD

EQLDIMS
    3  100   20    1    2 /

EQLOPTS
                        'THPRES'  'MOBILE'   /

TRACERS
    0    1    1    0 'DIFF  ' /

ENDSCALE
'NODIR'     'REVERS'           2    6  /

TABDIMS
    1    2   20   20    3   20 /

REGDIMS
    3    1    0    1  /

WELLDIMS
   20    8    3   15 /

VFPPDIMS
    5    5    6    6    2    2 /

VFPIDIMS
    7    4    1 /

AQUDIMS
    0    0    0    0    3  400 /

START
   1 'JAN' 1990  /


SAVE
/

NSTACK
 50 /

GRID


NOECHO

PINCH
 /

COORD
    454.8795       318.5807      0.0000000E+00   454.8795       318.5807
    10.00000
    1378.285       318.5807      0.0000000E+00   1378.285       318.5807
    10.00000
    2301.691       318.5807      0.0000000E+00   2301.691       318.5807
    10.00000
    3225.096       318.5807      0.0000000E+00   3225.096       318.5807
    10.00000
    4148.501       318.5807      0.0000000E+00   4148.501       318.5807
    10.00000
    5071.907       318.5807      0.0000000E+00   5071.907       318.5807
    10.00000
    5995.313       318.5807      0.0000000E+00   5995.313       318.5807
    10.00000
    6918.719       318.5807      0.0000000E+00   6918.719       318.5807
    10.00000
    7554.640       318.5807      0.0000000E+00   7554.640       318.5807
    10.00000
    8190.562       318.5807      0.0000000E+00   8190.562       318.5807
    10.00000
    8826.483       318.5807      0.0000000E+00   8826.483       318.5807
    10.00000
    9462.404       318.5807      0.0000000E+00   9462.404       318.5807
    10.00000
    10183.83       318.5807      0.0000000E+00   10183.83       318.5807
    10.00000
    10880.72       318.5807      0.0000000E+00   10880.72       318.5807
    10.00000
    11663.11       318.5807      0.0000000E+00   11663.11       318.5807
    10.00000
    12445.50       318.5807      0.0000000E+00   12445.50       318.5807
    10.00000
    13227.90       318.5807      0.0000000E+00   13227.90       318.5807
    10.00000
    14010.29       318.5807      0.0000000E+00   14010.29       318.5807
    10.00000
    15420.42       318.5807      0.0000000E+00   15420.42       318.5807
    10.00000
    17012.49       318.5807      0.0000000E+00   17012.49       318.5807
    10.00000
    18922.99       318.5807      0.0000000E+00   18922.99       318.5807
    10.00000

    454.8795       2093.537      0.0000000E+00   454.8795       2093.537
    10.00000
    1378.285       2093.537      0.0000000E+00   1378.285       2093.537
    10.00000
    2301.691       2093.537      0.0000000E+00   2301.691       2093.537
    10.00000
    3225.096       2093.537      0.0000000E+00   3225.096       2093.537
    10.00000
    4148.501       2093.537      0.0000000E+00   4148.501       2093.537
    10.00000
    5071.907       2093.537      0.0000000E+00   5071.907       2093.537
    10.00000
    5995.313       2093.537      0.0000000E+00   5995.313       2093.537
    10.00000
    6918.719       2093.537      0.0000000E+00   6918.719       2093.537
    10.00000
    7554.641       2093.537      0.0000000E+00   7554.641       2093.537
    10.00000
    8190.562       2093.537      0.0000000E+00   8190.562       2093.537
    10.00000
    8826.483       2093.537      0.0000000E+00   8826.483       2093.537
    10.00000
    9462.405       2093.537      0.0000000E+00   9462.405       2093.537
    10.00000
    10183.83       2093.537      0.0000000E+00   10183.83       2093.537
    10.00000
    10880.72       2093.537      0.0000000E+00   10880.72       2093.537
    10.00000
    11663.11       2093.537      0.0000000E+00   11663.11       2093.537
    10.00000
    12445.50       2093.537      0.0000000E+00   12445.50       2093.537
    10.00000
    13227.90       2093.537      0.0000000E+00   13227.90       2093.537
    10.00000
    14010.29       2093.537      0.0000000E+00   14010.29       2093.537
    10.00000
    15420.42       2093.537      0.0000000E+00   15420.42       2093.537
    10.00000
    17012.50       2093.537      0.0000000E+00   17012.50       2093.537
    10.00000
    18922.99       2093.537      0.0000000E+00   18922.99       2093.537
    10.00000

    454.8795       3640.935      0.0000000E+00   454.8795       3640.935
    10.00000
    1378.286       3640.935      0.0000000E+00   1378.286       3640.935
    10.00000
    2301.690       3640.935      0.0000000E+00   2301.690       3640.935
    10.00000
    3225.096       3640.935      0.0000000E+00   3225.096       3640.935
    10.00000
    4148.502       3640.935      0.0000000E+00   4148.502       3640.935
    10.00000
    5071.908       3640.935      0.0000000E+00   5071.908       3640.935
    10.00000
    5995.313       3640.935      0.0000000E+00   5995.313       3640.935
    10.00000
    6918.719       3640.935      0.0000000E+00   6918.719       3640.935
    10.00000
    7554.641       3640.935      0.0000000E+00   7554.641       3640.935
    10.00000
    8190.562       3640.935      0.0000000E+00   8190.562       3640.935
    10.00000
    8826.483       3640.935      0.0000000E+00   8826.483       3640.935
    10.00000
    9462.404       3640.935      0.0000000E+00   9462.404       3640.935
    10.00000
    10183.83       3640.935      0.0000000E+00   10183.83       3640.935
    10.00000
    10880.72       3640.935      0.0000000E+00   10880.72       3640.935
    10.00000
    11663.11       3640.935      0.0000000E+00   11663.11       3640.935
    10.00000
    12445.51       3640.935      0.0000000E+00   12445.51       3640.935
    10.00000
    13227.90       3640.935      0.0000000E+00   13227.90       3640.935
    10.00000
    14010.29       3640.935      0.0000000E+00   14010.29       3640.935
    10.00000
    15420.42       3640.935      0.0000000E+00   15420.42       3640.935
    10.00000
    17012.50       3640.935      0.0000000E+00   17012.50       3640.935
    10.00000
    18922.99       3640.935      0.0000000E+00   18922.99       3640.935
    10.00000

    454.8795       4349.617      0.0000000E+00   454.8795       4349.617
    10.00000
    1378.286       4349.617      0.0000000E+00   1378.286       4349.617
    10.00000
    2301.690       4349.617      0.0000000E+00   2301.690       4349.617
    10.00000
    3225.096       4349.618      0.0000000E+00   3225.096       4349.618
    10.00000
    4148.502       4349.617      0.0000000E+00   4148.502       4349.617
    10.00000
    5071.908       4349.617      0.0000000E+00   5071.908       4349.617
    10.00000
    5995.313       4349.617      0.0000000E+00   5995.313       4349.617
    10.00000
    6918.719       4349.617      0.0000000E+00   6918.719       4349.617
    10.00000
    7554.641       4349.617      0.0000000E+00   7554.641       4349.617
    10.00000
    8190.562       4349.617      0.0000000E+00   8190.562       4349.617
    10.00000
    8826.483       4349.617      0.0000000E+00   8826.483       4349.617
    10.00000
    9462.404       4349.617      0.0000000E+00   9462.404       4349.617
    10.00000
    10183.83       4349.617      0.0000000E+00   10183.83       4349.617
    10.00000
    10880.72       4349.617      0.0000000E+00   10880.72       4349.617
    10.00000
    11663.11       4349.617      0.0000000E+00   11663.11       4349.617
    10.00000
    12445.51       4349.617      0.0000000E+00   12445.51       4349.617
    10.00000
    13227.90       4349.617      0.0000000E+00   13227.90       4349.617
    10.00000
    14010.29       4349.617      0.0000000E+00   14010.29       4349.617
    10.00000
    15420.42       4349.617      0.0000000E+00   15420.42       4349.617
    10.00000
    17012.50       4349.618      0.0000000E+00   17012.50       4349.618
    10.00000
    18922.99       4349.617      0.0000000E+00   18922.99       4349.617
    10.00000

    454.8795       5058.299      0.0000000E+00   454.8795       5058.299
    10.00000
    1378.287       5058.299      0.0000000E+00   1378.287       5058.299
    10.00000
    2301.690       5058.299      0.0000000E+00   2301.690       5058.299
    10.00000
    3225.097       5058.300      0.0000000E+00   3225.097       5058.300
    10.00000
    4148.501       5058.299      0.0000000E+00   4148.501       5058.299
    10.00000
    5071.909       5058.300      0.0000000E+00   5071.909       5058.300
    10.00000
    5995.313       5058.299      0.0000000E+00   5995.313       5058.299
    10.00000
    6918.720       5058.299      0.0000000E+00   6918.720       5058.299
    10.00000
    7554.641       5058.299      0.0000000E+00   7554.641       5058.299
    10.00000
    8190.562       5058.299      0.0000000E+00   8190.562       5058.299
    10.00000
    8826.483       5058.299      0.0000000E+00   8826.483       5058.299
    10.00000
    9462.404       5058.299      0.0000000E+00   9462.404       5058.299
    10.00000
    10183.83       5058.299      0.0000000E+00   10183.83       5058.299
    10.00000
    10880.72       5058.299      0.0000000E+00   10880.72       5058.299
    10.00000
    11663.11       5058.299      0.0000000E+00   11663.11       5058.299
    10.00000
    12445.51       5058.299      0.0000000E+00   12445.51       5058.299
    10.00000
    13227.90       5058.299      0.0000000E+00   13227.90       5058.299
    10.00000
    14010.29       5058.299      0.0000000E+00   14010.29       5058.299
    10.00000
    15420.42       5058.299      0.0000000E+00   15420.42       5058.299
    10.00000
    17012.50       5058.299      0.0000000E+00   17012.50       5058.299
    10.00000
    18922.99       5058.299      0.0000000E+00   18922.99       5058.299
    10.00000

    454.8795       5766.981      0.0000000E+00   454.8795       5766.981
    10.00000
    1378.286       5766.981      0.0000000E+00   1378.286       5766.981
    10.00000
    2301.689       5766.981      0.0000000E+00   2301.689       5766.981
    10.00000
    3225.096       5766.982      0.0000000E+00   3225.096       5766.982
    10.00000
    4148.500       5766.981      0.0000000E+00   4148.500       5766.981
    10.00000
    5071.908       5766.981      0.0000000E+00   5071.908       5766.981
    10.00000
    5995.314       5766.981      0.0000000E+00   5995.314       5766.981
    10.00000
    6918.719       5766.981      0.0000000E+00   6918.719       5766.981
    10.00000
    7554.640       5766.981      0.0000000E+00   7554.640       5766.981
    10.00000
    8190.562       5766.981      0.0000000E+00   8190.562       5766.981
    10.00000
    8826.483       5766.981      0.0000000E+00   8826.483       5766.981
    10.00000
    9462.404       5766.981      0.0000000E+00   9462.404       5766.981
    10.00000
    10183.83       5766.981      0.0000000E+00   10183.83       5766.981
    10.00000
    10880.72       5766.981      0.0000000E+00   10880.72       5766.981
    10.00000
    11663.11       5766.981      0.0000000E+00   11663.11       5766.981
    10.00000
    12445.51       5766.981      0.0000000E+00   12445.51       5766.981
    10.00000
    13227.90       5766.981      0.0000000E+00   13227.90       5766.981
    10.00000
    14010.29       5766.981      0.0000000E+00   14010.29       5766.981
    10.00000
    15420.42       5766.981      0.0000000E+00   15420.42       5766.981
    10.00000
    17012.50       5766.981      0.0000000E+00   17012.50       5766.981
    10.00000
    18922.99       5766.981      0.0000000E+00   18922.99       5766.981
    10.00000

    454.8795       6475.664      0.0000000E+00   454.8795       6475.664
    10.00000
    1378.286       6475.664      0.0000000E+00   1378.286       6475.664
    10.00000
    2301.689       6475.664      0.0000000E+00   2301.689       6475.664
    10.00000
    3225.096       6475.665      0.0000000E+00   3225.096       6475.665
    10.00000
    4148.500       6475.664      0.0000000E+00   4148.500       6475.664
    10.00000
    5071.908       6475.665      0.0000000E+00   5071.908       6475.665
    10.00000
    5995.314       6475.664      0.0000000E+00   5995.314       6475.664
    10.00000
    6918.719       6475.664      0.0000000E+00   6918.719       6475.664
    10.00000
    7554.640       6475.664      0.0000000E+00   7554.640       6475.664
    10.00000
    8190.562       6475.664      0.0000000E+00   8190.562       6475.664
    10.00000
    8826.483       6475.664      0.0000000E+00   8826.483       6475.664
    10.00000
    9462.404       6475.664      0.0000000E+00   9462.404       6475.664
    10.00000
    10183.83       6475.664      0.0000000E+00   10183.83       6475.664
    10.00000
    10880.72       6475.664      0.0000000E+00   10880.72       6475.664
    10.00000
    11663.11       6475.664      0.0000000E+00   11663.11       6475.664
    10.00000
    12445.51       6475.664      0.0000000E+00   12445.51       6475.664
    10.00000
    13227.90       6475.664      0.0000000E+00   13227.90       6475.664
    10.00000
    14010.29       6475.664      0.0000000E+00   14010.29       6475.664
    10.00000
    15420.42       6475.664      0.0000000E+00   15420.42       6475.664
    10.00000
    17012.50       6475.665      0.0000000E+00   17012.50       6475.665
    10.00000
    18922.99       6475.664      0.0000000E+00   18922.99       6475.664
    10.00000

    454.8795       7184.346      0.0000000E+00   454.8795       7184.346
    10.00000
    1378.287       7184.347      0.0000000E+00   1378.287       7184.347
    10.00000
    2301.690       7184.345      0.0000000E+00   2301.690       7184.345
    10.00000
    3225.097       7184.347      0.0000000E+00   3225.097       7184.347
    10.00000
    4148.501       7184.346      0.0000000E+00   4148.501       7184.346
    10.00000
    5071.909       7184.346      0.0000000E+00   5071.909       7184.346
    10.00000
    5995.313       7184.346      0.0000000E+00   5995.313       7184.346
    10.00000
    6918.720       7184.345      0.0000000E+00   6918.720       7184.345
    10.00000
    7554.640       7184.346      0.0000000E+00   7554.640       7184.346
    10.00000
    8190.562       7184.346      0.0000000E+00   8190.562       7184.346
    10.00000
    8826.483       7184.346      0.0000000E+00   8826.483       7184.346
    10.00000
    9462.404       7184.346      0.0000000E+00   9462.404       7184.346
    10.00000
    10183.83       7184.346      0.0000000E+00   10183.83       7184.346
    10.00000
    10880.72       7184.346      0.0000000E+00   10880.72       7184.346
    10.00000
    11663.11       7184.345      0.0000000E+00   11663.11       7184.345
    10.00000
    12445.51       7184.345      0.0000000E+00   12445.51       7184.345
    10.00000
    13227.90       7184.346      0.0000000E+00   13227.90       7184.346
    10.00000
    14010.29       7184.346      0.0000000E+00   14010.29       7184.346
    10.00000
    15420.42       7184.346      0.0000000E+00   15420.42       7184.346
    10.00000
    17012.50       7184.345      0.0000000E+00   17012.50       7184.345
    10.00000
    18922.99       7184.346      0.0000000E+00   18922.99       7184.346
    10.00000

    454.8795       7893.028      0.0000000E+00   454.8795       7893.028
    10.00000
    1378.286       7893.028      0.0000000E+00   1378.286       7893.028
    10.00000
    2301.690       7893.028      0.0000000E+00   2301.690       7893.028
    10.00000
    3225.096       7893.028      0.0000000E+00   3225.096       7893.028
    10.00000
    4148.502       7893.028      0.0000000E+00   4148.502       7893.028
    10.00000
    5071.908       7893.028      0.0000000E+00   5071.908       7893.028
    10.00000
    5995.313       7893.028      0.0000000E+00   5995.313       7893.028
    10.00000
    6918.719       7893.026      0.0000000E+00   6918.719       7893.026
    10.00000
    7554.640       7893.027      0.0000000E+00   7554.640       7893.027
    10.00000
    8190.562       7893.027      0.0000000E+00   8190.562       7893.027
    10.00000
    8826.483       7893.027      0.0000000E+00   8826.483       7893.027
    10.00000
    9462.404       7893.027      0.0000000E+00   9462.404       7893.027
    10.00000
    10183.83       7893.027      0.0000000E+00   10183.83       7893.027
    10.00000
    10880.72       7893.027      0.0000000E+00   10880.72       7893.027
    10.00000
    11663.11       7893.027      0.0000000E+00   11663.11       7893.027
    10.00000
    12445.51       7893.027      0.0000000E+00   12445.51       7893.027
    10.00000
    13227.90       7893.027      0.0000000E+00   13227.90       7893.027
    10.00000
    14010.29       7893.028      0.0000000E+00   14010.29       7893.028
    10.00000
    15420.42       7893.028      0.0000000E+00   15420.42       7893.028
    10.00000
    17012.50       7893.028      0.0000000E+00   17012.50       7893.028
    10.00000
    18922.99       7893.028      0.0000000E+00   18922.99       7893.028
    10.00000

    454.8795       8702.578      0.0000000E+00   454.8795       8702.578
    10.00000
    1378.286       8702.578      0.0000000E+00   1378.286       8702.578
    10.00000
    2301.690       8702.578      0.0000000E+00   2301.690       8702.578
    10.00000
    3225.096       8702.578      0.0000000E+00   3225.096       8702.578
    10.00000
    4148.502       8702.578      0.0000000E+00   4148.502       8702.578
    10.00000
    5071.908       8702.578      0.0000000E+00   5071.908       8702.578
    10.00000
    5995.313       8702.578      0.0000000E+00   5995.313       8702.578
    10.00000
    6918.719       8702.578      0.0000000E+00   6918.719       8702.578
    10.00000
    7554.640       8702.578      0.0000000E+00   7554.640       8702.578
    10.00000
    8190.562       8702.578      0.0000000E+00   8190.562       8702.578
    10.00000
    8826.483       8702.578      0.0000000E+00   8826.483       8702.578
    10.00000
    9462.404       8702.578      0.0000000E+00   9462.404       8702.578
    10.00000
    10183.83       8702.578      0.0000000E+00   10183.83       8702.578
    10.00000
    10880.72       8702.578      0.0000000E+00   10880.72       8702.578
    10.00000
    11663.11       8702.578      0.0000000E+00   11663.11       8702.578
    10.00000
    12445.51       8702.578      0.0000000E+00   12445.51       8702.578
    10.00000
    13227.90       8702.578      0.0000000E+00   13227.90       8702.578
    10.00000
    14010.29       8702.578      0.0000000E+00   14010.29       8702.578
    10.00000
    15420.42       8702.578      0.0000000E+00   15420.42       8702.578
    10.00000
    17012.50       8702.578      0.0000000E+00   17012.50       8702.578
    10.00000
    18922.99       8702.578      0.0000000E+00   18922.99       8702.578
    10.00000

    454.8795       9500.567      0.0000000E+00   454.8795       9500.567
    10.00000
    1378.285       9500.567      0.0000000E+00   1378.285       9500.567
    10.00000
    2301.691       9500.567      0.0000000E+00   2301.691       9500.567
    10.00000
    3225.096       9500.567      0.0000000E+00   3225.096       9500.567
    10.00000
    4148.501       9500.567      0.0000000E+00   4148.501       9500.567
    10.00000
    5071.907       9500.567      0.0000000E+00   5071.907       9500.567
    10.00000
    5995.313       9500.567      0.0000000E+00   5995.313       9500.567
    10.00000
    6918.719       9500.567      0.0000000E+00   6918.719       9500.567
    10.00000
    7554.639       9500.567      0.0000000E+00   7554.639       9500.567
    10.00000
    8190.562       9500.567      0.0000000E+00   8190.562       9500.567
    10.00000
    8826.483       9500.567      0.0000000E+00   8826.483       9500.567
    10.00000
    9462.403       9500.567      0.0000000E+00   9462.403       9500.567
    10.00000
    10183.83       9500.567      0.0000000E+00   10183.83       9500.567
    10.00000
    10880.72       9500.567      0.0000000E+00   10880.72       9500.567
    10.00000
    11663.11       9500.567      0.0000000E+00   11663.11       9500.567
    10.00000
    12445.51       9500.567      0.0000000E+00   12445.51       9500.567
    10.00000
    13227.90       9500.567      0.0000000E+00   13227.90       9500.567
    10.00000
    14010.29       9500.567      0.0000000E+00   14010.29       9500.567
    10.00000
    15420.42       9500.567      0.0000000E+00   15420.42       9500.567
    10.00000
    17012.50       9500.567      0.0000000E+00   17012.50       9500.567
    10.00000
    18922.99       9500.567      0.0000000E+00   18922.99       9500.567
    10.00000

    454.8795       10399.42      0.0000000E+00   454.8795       10399.42
    10.00000
    1378.285       10399.42      0.0000000E+00   1378.285       10399.42
    10.00000
    2301.691       10399.42      0.0000000E+00   2301.691       10399.42
    10.00000
    3225.096       10399.42      0.0000000E+00   3225.096       10399.42
    10.00000
    4148.501       10399.42      0.0000000E+00   4148.501       10399.42
    10.00000
    5071.907       10399.42      0.0000000E+00   5071.907       10399.42
    10.00000
    5995.313       10399.42      0.0000000E+00   5995.313       10399.42
    10.00000
    6918.719       10399.42      0.0000000E+00   6918.719       10399.42
    10.00000
    7554.639       10399.42      0.0000000E+00   7554.639       10399.42
    10.00000
    8190.561       10399.42      0.0000000E+00   8190.561       10399.42
    10.00000
    8826.482       10399.42      0.0000000E+00   8826.482       10399.42
    10.00000
    9462.403       10399.42      0.0000000E+00   9462.403       10399.42
    10.00000
    10183.83       10399.42      0.0000000E+00   10183.83       10399.42
    10.00000
    10880.72       10399.42      0.0000000E+00   10880.72       10399.42
    10.00000
    11663.11       10399.42      0.0000000E+00   11663.11       10399.42
    10.00000
    12445.50       10399.42      0.0000000E+00   12445.50       10399.42
    10.00000
    13227.90       10399.42      0.0000000E+00   13227.90       10399.42
    10.00000
    14010.29       10399.42      0.0000000E+00   14010.29       10399.42
    10.00000
    15420.42       10399.42      0.0000000E+00   15420.42       10399.42
    10.00000
    17012.50       10399.42      0.0000000E+00   17012.50       10399.42
    10.00000
    18922.99       10399.42      0.0000000E+00   18922.99       10399.42
    10.00000

    454.8795       11298.28      0.0000000E+00   454.8795       11298.28
    10.00000
    1378.285       11298.28      0.0000000E+00   1378.285       11298.28
    10.00000
    2301.691       11298.28      0.0000000E+00   2301.691       11298.28
    10.00000
    3225.096       11298.28      0.0000000E+00   3225.096       11298.28
    10.00000
    4148.501       11298.28      0.0000000E+00   4148.501       11298.28
    10.00000
    5071.907       11298.28      0.0000000E+00   5071.907       11298.28
    10.00000
    5995.313       11298.28      0.0000000E+00   5995.313       11298.28
    10.00000
    6918.719       11298.28      0.0000000E+00   6918.719       11298.28
    10.00000
    7554.641       11298.28      0.0000000E+00   7554.641       11298.28
    10.00000
    8190.563       11298.28      0.0000000E+00   8190.563       11298.28
    10.00000
    8826.483       11298.28      0.0000000E+00   8826.483       11298.28
    10.00000
    9462.404       11298.28      0.0000000E+00   9462.404       11298.28
    10.00000
    10183.83       11298.28      0.0000000E+00   10183.83       11298.28
    10.00000
    10880.72       11298.28      0.0000000E+00   10880.72       11298.28
    10.00000
    11663.11       11298.28      0.0000000E+00   11663.11       11298.28
    10.00000
    12445.50       11298.28      0.0000000E+00   12445.50       11298.28
    10.00000
    13227.90       11298.28      0.0000000E+00   13227.90       11298.28
    10.00000
    14010.29       11298.28      0.0000000E+00   14010.29       11298.28
    10.00000
    15420.42       11298.28      0.0000000E+00   15420.42       11298.28
    10.00000
    17012.50       11298.28      0.0000000E+00   17012.50       11298.28
    10.00000
    18922.99       11298.28      0.0000000E+00   18922.99       11298.28
    10.00000

    454.8795       12197.14      0.0000000E+00   454.8795       12197.14
    10.00000
    1378.285       12197.14      0.0000000E+00   1378.285       12197.14
    10.00000
    2301.691       12197.14      0.0000000E+00   2301.691       12197.14
    10.00000
    3225.096       12197.14      0.0000000E+00   3225.096       12197.14
    10.00000
    4148.501       12197.14      0.0000000E+00   4148.501       12197.14
    10.00000
    5071.907       12197.14      0.0000000E+00   5071.907       12197.14
    10.00000
    5995.313       12197.14      0.0000000E+00   5995.313       12197.14
    10.00000
    6918.719       12197.14      0.0000000E+00   6918.719       12197.14
    10.00000
    7554.639       12197.14      0.0000000E+00   7554.639       12197.14
    10.00000
    8190.561       12197.14      0.0000000E+00   8190.561       12197.14
    10.00000
    8826.483       12197.14      0.0000000E+00   8826.483       12197.14
    10.00000
    9462.404       12197.14      0.0000000E+00   9462.404       12197.14
    10.00000
    10183.83       12197.14      0.0000000E+00   10183.83       12197.14
    10.00000
    10880.72       12197.14      0.0000000E+00   10880.72       12197.14
    10.00000
    11663.11       12197.13      0.0000000E+00   11663.11       12197.13
    10.00000
    12445.50       12197.14      0.0000000E+00   12445.50       12197.14
    10.00000
    13227.90       12197.13      0.0000000E+00   13227.90       12197.13
    10.00000
    14010.29       12197.14      0.0000000E+00   14010.29       12197.14
    10.00000
    15420.42       12197.14      0.0000000E+00   15420.42       12197.14
    10.00000
    17012.49       12197.14      0.0000000E+00   17012.49       12197.14
    10.00000
    18922.99       12197.14      0.0000000E+00   18922.99       12197.14
    10.00000

    454.8795       13926.58      0.0000000E+00   454.8795       13926.58
    10.00000
    1378.285       13926.58      0.0000000E+00   1378.285       13926.58
    10.00000
    2301.691       13926.58      0.0000000E+00   2301.691       13926.58
    10.00000
    3225.096       13926.58      0.0000000E+00   3225.096       13926.58
    10.00000
    4148.501       13926.58      0.0000000E+00   4148.501       13926.58
    10.00000
    5071.907       13926.58      0.0000000E+00   5071.907       13926.58
    10.00000
    5995.313       13926.58      0.0000000E+00   5995.313       13926.58
    10.00000
    6918.719       13926.58      0.0000000E+00   6918.719       13926.58
    10.00000
    7554.639       13926.58      0.0000000E+00   7554.639       13926.58
    10.00000
    8190.561       13926.58      0.0000000E+00   8190.561       13926.58
    10.00000
    8826.483       13926.58      0.0000000E+00   8826.483       13926.58
    10.00000
    9462.404       13926.58      0.0000000E+00   9462.404       13926.58
    10.00000
    10183.83       13926.58      0.0000000E+00   10183.83       13926.58
    10.00000
    10880.72       13926.58      0.0000000E+00   10880.72       13926.58
    10.00000
    11663.11       13926.58      0.0000000E+00   11663.11       13926.58
    10.00000
    12445.50       13926.58      0.0000000E+00   12445.50       13926.58
    10.00000
    13227.90       13926.58      0.0000000E+00   13227.90       13926.58
    10.00000
    14010.29       13926.58      0.0000000E+00   14010.29       13926.58
    10.00000
    15420.42       13926.58      0.0000000E+00   15420.42       13926.58
    10.00000
    17012.49       13926.58      0.0000000E+00   17012.49       13926.58
    10.00000
    18922.99       13926.58      0.0000000E+00   18922.99       13926.58
    10.00000

    454.8795       15883.58      0.0000000E+00   454.8795       15883.58
    10.00000
    1378.285       15883.58      0.0000000E+00   1378.285       15883.58
    10.00000
    2301.691       15883.58      0.0000000E+00   2301.691       15883.58
    10.00000
    3225.096       15883.58      0.0000000E+00   3225.096       15883.58
    10.00000
    4148.501       15883.58      0.0000000E+00   4148.501       15883.58
    10.00000
    5071.907       15883.58      0.0000000E+00   5071.907       15883.58
    10.00000
    5995.313       15883.58      0.0000000E+00   5995.313       15883.58
    10.00000
    6918.719       15883.58      0.0000000E+00   6918.719       15883.58
    10.00000
    7554.640       15883.58      0.0000000E+00   7554.640       15883.58
    10.00000
    8190.562       15883.58      0.0000000E+00   8190.562       15883.58
    10.00000
    8826.483       15883.58      0.0000000E+00   8826.483       15883.58
    10.00000
    9462.404       15883.58      0.0000000E+00   9462.404       15883.58
    10.00000
    10183.83       15883.58      0.0000000E+00   10183.83       15883.58
    10.00000
    10880.72       15883.58      0.0000000E+00   10880.72       15883.58
    10.00000
    11663.11       15883.58      0.0000000E+00   11663.11       15883.58
    10.00000
    12445.50       15883.58      0.0000000E+00   12445.50       15883.58
    10.00000
    13227.90       15883.58      0.0000000E+00   13227.90       15883.58
    10.00000
    14010.29       15883.58      0.0000000E+00   14010.29       15883.58
    10.00000
    15420.42       15883.58      0.0000000E+00   15420.42       15883.58
    10.00000